minlp-notes/research-20261001/scip-set-selection/logs/root/powerflow0014r.eff.s0.log
SCIP version 10.0.3 [precision: 8 byte] [memory: block] [mode: optimized] [LP solver: SoPlex 8.0.3] [GitHash: d409edf9f6]
Copyright (c) 2002-2026 Zuse Institute Berlin (ZIB)

External libraries: 
  Readline 8.3         GNU library for command line editing (gnu.org/s/readline)
  SoPlex 8.0.3         Linear programming solver developed at Zuse Institute Berlin (soplex.zib.de) [GitHash: 13e2ab24]
  CppAD 20180000.0     Algorithmic Differentiation of C++ algorithms developed by B. Bell (github.com/coin-or/CppAD)
  ZLIB 1.3.2           General purpose compression library by J. Gailly and M. Adler (zlib.net)
  LAPACK 3.12.0        General Linear Algebra PACKage (http://www.netlib.org/lapack/)
  MPFR 4.2.2           GNU Multiple Precision Floating-Point Reliable Library (mpfr.org)
  Boost 1.85.0         Boost C++ Libraries (boost.org)
  TinyCThread 1.2      small portable implementation of the C11 threads API (tinycthread.github.io)
  GMP 6.3.0            GNU Multiple Precision Arithmetic Library developed by T. Granlund (gmplib.org)
  AMPL/MP 4.0.4        AMPL .nl file reader library (github.com/ampl/mp)
  Nauty 2.8.8          Computing Graph Automorphism Groups by Brendan D. McKay (users.cecs.anu.edu.au/~bdm/nauty)
  sassy 2.1            Symmetry preprocessor by Markus Anders (github.com/markusa4/sassy)

user parameter file <scip.set> not found - using default parameters

table/nlhdlr_quadratic/active = TRUE
limits/memory = 6000
limits/time = 120
timing/clocktype = 1
nlhdlr/quadratic/useintersectioncuts = TRUE
nlhdlr/quadratic/setrule = 2
limits/nodes = 1

read problem </workspace/local-home/.cache/minlplib/minlplib/osil/powerflow0014r.osil>
============

original problem has 119 variables (0 bin, 0 int, 119 cont) and 198 constraints

presolving:
(round 1, fast)       15 del vars, 69 del conss, 0 add conss, 366 chg bounds, 0 chg sides, 0 chg coeffs, 0 upgd conss, 0 impls, 0 clqs, 0 implints
(round 2, fast)       15 del vars, 71 del conss, 0 add conss, 394 chg bounds, 0 chg sides, 0 chg coeffs, 0 upgd conss, 0 impls, 0 clqs, 0 implints
   (0.0s) symmetry computation started: requiring (bin +, int +, cont +), (fixed: bin -, int -, cont -)
   (0.0s) no symmetry present (symcode time: 0.00)
presolving (3 rounds: 3 fast, 1 medium, 1 exhaustive):
 15 deleted vars, 71 deleted constraints, 0 added constraints, 394 tightened bounds, 0 added holes, 0 changed sides, 0 changed coefficients
 0 implications, 0 cliques, 0 implied integral variables (0 bin, 0 int, 0 cont)
presolved problem has 104 variables (0 bin, 0 int, 104 cont) and 113 constraints
     18 constraints of type <linear>
     95 constraints of type <nonlinear>
Presolving Time: 0.01

 time | node  | left  |LP iter|LP it/n|mem/heur|mdpt |vars |cons |rows |cuts |sepa|confs|strbr|  dualbound   | primalbound  |  gap   | compl. 
  0.0s|     1 |     0 |   226 |     - |  4317k |   0 | 306 | 113 | 333 |   0 |  0 |   0 |   0 |-1.000000e-09 |      --      |    Inf | unknown
  0.1s|     1 |     0 |   278 |     - |  5739k |   0 | 306 | 113 | 352 |  19 |  1 |   0 |   0 |-1.000000e-09 |      --      |    Inf | unknown
  0.2s|     1 |     0 |   324 |     - |  6231k |   0 | 306 | 113 | 371 |  38 |  2 |   0 |   0 |-1.000000e-09 |      --      |    Inf | unknown
  0.2s|     1 |     0 |   406 |     - |  7052k |   0 | 306 | 113 | 389 |  56 |  3 |   0 |   0 |-1.000000e-09 |      --      |    Inf | unknown
  0.3s|     1 |     0 |   506 |     - |  7377k |   0 | 306 | 113 | 404 |  71 |  4 |   0 |   0 |-1.000000e-09 |      --      |    Inf | unknown
  0.3s|     1 |     0 |   587 |     - |  7458k |   0 | 306 | 113 | 423 |  90 |  5 |   0 |   0 |-1.000000e-09 |      --      |    Inf | unknown
  0.4s|     1 |     0 |   656 |     - |  8617k |   0 | 306 | 113 | 441 | 108 |  6 |   0 |   0 |-1.000000e-09 |      --      |    Inf | unknown
  0.5s|     1 |     0 |   719 |     - |  8652k |   0 | 306 | 113 | 458 | 125 |  7 |   0 |   0 |-1.000000e-09 |      --      |    Inf | unknown
  0.6s|     1 |     0 |   762 |     - |  8652k |   0 | 306 | 113 | 473 | 140 |  8 |   0 |   0 |-1.000000e-09 |      --      |    Inf | unknown
  0.6s|     1 |     0 |   803 |     - |    10M |   0 | 306 | 113 | 487 | 154 |  9 |   0 |   0 |-1.000000e-09 |      --      |    Inf | unknown
  0.7s|     1 |     0 |   871 |     - |    10M |   0 | 306 | 113 | 298 | 170 | 10 |   0 |   0 |-1.000000e-09 |      --      |    Inf | unknown
  0.8s|     1 |     0 |   967 |     - |    10M |   0 | 306 | 113 | 311 | 183 | 11 |   0 |   0 |-1.000000e-09 |      --      |    Inf | unknown
  1.6s|     1 |     0 | 15423 |     - |    11M |   0 | 306 | 113 | 410 | 317 | 11 |   0 |   0 |-1.000000e-09 |      --      |    Inf | unknown
  1.7s|     1 |     0 | 15495 |     - |    12M |   0 | 306 | 113 | 427 | 334 | 12 |   0 |   0 |-1.000000e-09 |      --      |    Inf | unknown
  1.9s|     1 |     0 | 15538 |     - |    16M |   0 | 306 | 113 | 531 | 438 | 13 |   0 |   0 |-1.000000e-09 |      --      |    Inf | unknown
 time | node  | left  |LP iter|LP it/n|mem/heur|mdpt |vars |cons |rows |cuts |sepa|confs|strbr|  dualbound   | primalbound  |  gap   | compl. 
  2.0s|     1 |     0 | 15613 |     - |    16M |   0 | 306 | 113 | 545 | 452 | 14 |   0 |   0 |-1.000000e-09 |      --      |    Inf | unknown
  2.2s|     1 |     0 | 15691 |     - |    19M |   0 | 306 | 113 | 642 | 549 | 15 |   0 |   0 |-1.000000e-09 |      --      |    Inf | unknown
  2.5s|     1 |     0 | 15800 |     - |    19M |   0 | 306 | 113 | 659 | 566 | 16 |   0 |   0 |-1.000000e-09 |      --      |    Inf | unknown
  2.8s|     1 |     0 | 15848 |     - |    22M |   0 | 306 | 113 | 681 | 670 | 17 |   0 |   0 |-1.000000e-09 |      --      |    Inf | unknown
  3.1s|     1 |     0 | 15883 |     - |    22M |   0 | 306 | 113 | 696 | 685 | 18 |   0 |   0 |-1.000000e-09 |      --      |    Inf | unknown
  3.5s|     1 |     0 | 15911 |     - |    26M |   0 | 306 | 113 | 792 | 781 | 19 |   0 |   0 |-1.000000e-09 |      --      |    Inf | unknown
  3.6s|     1 |     0 | 15980 |     - |    26M |   0 | 306 | 113 | 811 | 800 | 20 |   0 |   0 |-1.000000e-09 |      --      |    Inf | unknown
  3.6s|     1 |     0 | 16007 |     - |    27M |   0 | 306 | 113 | 829 | 818 | 21 |   0 |   0 |-1.000000e-09 |      --      |    Inf | unknown
  3.7s|     1 |     0 | 16174 |     - |    27M |   0 | 306 | 113 | 842 | 831 | 22 |   0 |   0 |-1.000000e-09 |      --      |    Inf | unknown
  3.7s|     1 |     0 | 16445 |     - |    27M |   0 | 306 | 113 | 586 | 862 | 23 |   0 |   0 | 1.079576e+03 |      --      |    Inf | unknown
  3.7s|     1 |     0 | 16498 |     - |    27M |   0 | 306 | 113 | 599 | 875 | 24 |   0 |   0 | 1.610746e+03 |      --      |    Inf | unknown
  3.7s|     1 |     0 | 16524 |     - |    27M |   0 | 306 | 113 | 629 | 905 | 25 |   0 |   0 | 1.661455e+03 |      --      |    Inf | unknown
  3.7s|     1 |     0 | 16595 |     - |    27M |   0 | 306 | 113 | 647 | 923 | 26 |   0 |   0 | 2.154960e+03 |      --      |    Inf | unknown
  3.7s|     1 |     0 | 16628 |     - |    27M |   0 | 306 | 113 | 671 | 947 | 27 |   0 |   0 | 2.372168e+03 |      --      |    Inf | unknown
  3.7s|     1 |     0 | 16734 |     - |    27M |   0 | 306 | 113 | 690 | 966 | 28 |   0 |   0 | 2.831439e+03 |      --      |    Inf | unknown
 time | node  | left  |LP iter|LP it/n|mem/heur|mdpt |vars |cons |rows |cuts |sepa|confs|strbr|  dualbound   | primalbound  |  gap   | compl. 
  3.7s|     1 |     0 | 16743 |     - |    27M |   0 | 306 | 113 | 381 | 976 | 29 |   0 |   0 | 2.841291e+03 |      --      |    Inf | unknown
  3.8s|     1 |     0 | 16818 |     - |    27M |   0 | 306 | 113 | 400 | 995 | 30 |   0 |   0 | 3.429391e+03 |      --      |    Inf | unknown
  3.8s|     1 |     0 | 16837 |     - |    27M |   0 | 306 | 113 | 411 |1006 | 31 |   0 |   0 | 3.471932e+03 |      --      |    Inf | unknown
  3.8s|     1 |     0 | 16905 |     - |    27M |   0 | 306 | 113 | 430 |1025 | 32 |   0 |   0 | 3.975258e+03 |      --      |    Inf | unknown
  3.8s|     1 |     0 | 16921 |     - |    27M |   0 | 306 | 113 | 439 |1034 | 33 |   0 |   0 | 3.980632e+03 |      --      |    Inf | unknown
  3.8s|     1 |     0 | 16993 |     - |    27M |   0 | 306 | 113 | 458 |1053 | 34 |   0 |   0 | 4.451481e+03 |      --      |    Inf | unknown
  3.8s|     1 |     0 | 17004 |     - |    27M |   0 | 306 | 113 | 384 |1064 | 35 |   0 |   0 | 4.462354e+03 |      --      |    Inf | unknown
  3.8s|     1 |     0 | 17157 |     - |    27M |   0 | 306 | 113 | 401 |1081 | 36 |   0 |   0 | 5.155644e+03 |      --      |    Inf | unknown
  3.8s|     1 |     0 | 17198 |     - |    27M |   0 | 306 | 113 | 432 |1112 | 37 |   0 |   0 | 5.194514e+03 |      --      |    Inf | unknown
  3.8s|     1 |     0 | 17231 |     - |    27M |   0 | 306 | 113 | 449 |1129 | 38 |   0 |   0 | 5.204484e+03 |      --      |    Inf | unknown
  3.8s|     1 |     0 | 17239 |     - |    27M |   0 | 306 | 113 | 456 |1136 | 39 |   0 |   0 | 5.205129e+03 |      --      |    Inf | unknown
  3.8s|     1 |     0 | 17308 |     - |    27M |   0 | 306 | 113 | 476 |1156 | 40 |   0 |   0 | 5.264399e+03 |      --      |    Inf | unknown
  3.8s|     1 |     0 | 17319 |     - |    27M |   0 | 306 | 113 | 385 |1165 | 41 |   0 |   0 | 5.264662e+03 |      --      |    Inf | unknown
  3.8s|     1 |     0 | 17436 |     - |    27M |   0 | 306 | 113 | 403 |1183 | 42 |   0 |   0 | 5.402291e+03 |      --      |    Inf | unknown
  3.8s|     1 |     0 | 17507 |     - |    27M |   0 | 306 | 113 | 434 |1214 | 43 |   0 |   0 | 5.460110e+03 |      --      |    Inf | unknown
 time | node  | left  |LP iter|LP it/n|mem/heur|mdpt |vars |cons |rows |cuts |sepa|confs|strbr|  dualbound   | primalbound  |  gap   | compl. 
  3.8s|     1 |     0 | 17580 |     - |    27M |   0 | 306 | 113 | 453 |1233 | 44 |   0 |   0 | 5.499635e+03 |      --      |    Inf | unknown
  3.8s|     1 |     0 | 17601 |     - |    27M |   0 | 306 | 113 | 462 |1242 | 45 |   0 |   0 | 5.509945e+03 |      --      |    Inf | unknown
  3.8s|     1 |     0 | 17687 |     - |    27M |   0 | 306 | 113 | 480 |1260 | 46 |   0 |   0 | 5.607343e+03 |      --      |    Inf | unknown
  3.8s|     1 |     0 | 17728 |     - |    27M |   0 | 306 | 113 | 376 |1267 | 47 |   0 |   0 | 5.615674e+03 |      --      |    Inf | unknown
  3.8s|     1 |     0 | 17810 |     - |    27M |   0 | 306 | 113 | 394 |1285 | 48 |   0 |   0 | 5.877748e+03 |      --      |    Inf | unknown
  3.8s|     1 |     0 | 17817 |     - |    27M |   0 | 306 | 113 | 400 |1291 | 49 |   0 |   0 | 5.878933e+03 |      --      |    Inf | unknown
  3.8s|     1 |     0 | 17906 |     - |    27M |   0 | 306 | 113 | 417 |1308 | 50 |   0 |   0 | 5.986738e+03 |      --      |    Inf | unknown
  3.8s|     1 |     0 | 17920 |     - |    27M |   0 | 306 | 113 | 429 |1320 | 51 |   0 |   0 | 5.990606e+03 |      --      |    Inf | unknown
  3.8s|     1 |     0 | 17994 |     - |    27M |   0 | 306 | 113 | 447 |1338 | 52 |   0 |   0 | 6.026327e+03 |      --      |    Inf | unknown
  3.8s|     1 |     0 | 18004 |     - |    27M |   0 | 306 | 113 | 360 |1344 | 53 |   0 |   0 | 6.027842e+03 |      --      |    Inf | unknown
  3.8s|     1 |     0 | 18088 |     - |    27M |   0 | 306 | 113 | 378 |1362 | 54 |   0 |   0 | 6.244943e+03 |      --      |    Inf | unknown
  3.8s|     1 |     0 | 18102 |     - |    27M |   0 | 306 | 113 | 385 |1369 | 55 |   0 |   0 | 6.247134e+03 |      --      |    Inf | unknown
  3.8s|     1 |     0 | 18135 |     - |    27M |   0 | 306 | 113 | 403 |1387 | 56 |   0 |   0 | 6.264572e+03 |      --      |    Inf | unknown
  3.8s|     1 |     0 | 18139 |     - |    27M |   0 | 306 | 113 | 408 |1392 | 57 |   0 |   0 | 6.264775e+03 |      --      |    Inf | unknown
  3.8s|     1 |     0 | 18203 |     - |    27M |   0 | 306 | 113 | 425 |1409 | 58 |   0 |   0 | 6.293129e+03 |      --      |    Inf | unknown
 time | node  | left  |LP iter|LP it/n|mem/heur|mdpt |vars |cons |rows |cuts |sepa|confs|strbr|  dualbound   | primalbound  |  gap   | compl. 
  3.8s|     1 |     0 | 18207 |     - |    27M |   0 | 306 | 113 | 336 |1412 | 59 |   0 |   0 | 6.293156e+03 |      --      |    Inf | unknown
  3.8s|     1 |     0 | 18267 |     - |    27M |   0 | 306 | 113 | 351 |1427 | 60 |   0 |   0 | 6.419711e+03 |      --      |    Inf | unknown
  3.8s|     1 |     0 | 18273 |     - |    27M |   0 | 306 | 113 | 361 |1437 | 61 |   0 |   0 | 6.420158e+03 |      --      |    Inf | unknown
  3.8s|     1 |     0 | 18344 |     - |    27M |   0 | 306 | 113 | 381 |1457 | 62 |   0 |   0 | 6.453026e+03 |      --      |    Inf | unknown
  3.8s|     1 |     0 | 18348 |     - |    27M |   0 | 306 | 113 | 384 |1460 | 63 |   0 |   0 | 6.453040e+03 |      --      |    Inf | unknown
  3.8s|     1 |     0 | 18412 |     - |    27M |   0 | 306 | 113 | 401 |1477 | 64 |   0 |   0 | 6.611264e+03 |      --      |    Inf | unknown
  3.8s|     1 |     0 | 18442 |     - |    27M |   0 | 306 | 113 | 348 |1491 | 65 |   0 |   0 | 6.618338e+03 |      --      |    Inf | unknown
  3.9s|     1 |     0 | 18463 |     - |    27M |   0 | 306 | 113 | 367 |1510 | 66 |   0 |   0 | 6.622465e+03 |      --      |    Inf | unknown
  3.9s|     1 |     0 | 18471 |     - |    27M |   0 | 306 | 113 | 372 |1515 | 67 |   0 |   0 | 6.623822e+03 |      --      |    Inf | unknown
  3.9s|     1 |     0 | 18533 |     - |    27M |   0 | 306 | 113 | 386 |1529 | 68 |   0 |   0 | 6.649014e+03 |      --      |    Inf | unknown
  3.9s|     1 |     0 | 18542 |     - |    27M |   0 | 306 | 113 | 389 |1532 | 69 |   0 |   0 | 6.649271e+03 |      --      |    Inf | unknown
  3.9s|     1 |     0 | 18612 |     - |    27M |   0 | 306 | 113 | 405 |1548 | 70 |   0 |   0 | 6.684805e+03 |      --      |    Inf | unknown
  3.9s|     1 |     0 | 18617 |     - |    27M |   0 | 306 | 113 | 346 |1552 | 71 |   0 |   0 | 6.684920e+03 |      --      |    Inf | unknown
  3.9s|     1 |     0 | 18697 |     - |    27M |   0 | 306 | 113 | 364 |1570 | 72 |   0 |   0 | 6.933171e+03 |      --      |    Inf | unknown
  3.9s|     1 |     0 | 18703 |     - |    27M |   0 | 306 | 113 | 368 |1574 | 73 |   0 |   0 | 6.933621e+03 |      --      |    Inf | unknown
 time | node  | left  |LP iter|LP it/n|mem/heur|mdpt |vars |cons |rows |cuts |sepa|confs|strbr|  dualbound   | primalbound  |  gap   | compl. 
  3.9s|     1 |     0 | 18741 |     - |    27M |   0 | 306 | 113 | 388 |1594 | 74 |   0 |   0 | 6.957327e+03 |      --      |    Inf | unknown
  3.9s|     1 |     0 | 18744 |     - |    27M |   0 | 306 | 113 | 392 |1598 | 75 |   0 |   0 | 6.957666e+03 |      --      |    Inf | unknown
  3.9s|     1 |     0 | 18876 |     - |    27M |   0 | 306 | 113 | 408 |1614 | 76 |   0 |   0 | 7.068541e+03 |      --      |    Inf | unknown
  3.9s|     1 |     0 | 18878 |     - |    27M |   0 | 306 | 113 | 332 |1616 | 77 |   0 |   0 | 7.068707e+03 |      --      |    Inf | unknown
  3.9s|     1 |     0 | 18947 |     - |    27M |   0 | 306 | 113 | 347 |1631 | 78 |   0 |   0 | 7.110852e+03 |      --      |    Inf | unknown
  3.9s|     1 |     0 | 18950 |     - |    27M |   0 | 306 | 113 | 350 |1634 | 79 |   0 |   0 | 7.110911e+03 |      --      |    Inf | unknown
  3.9s|     1 |     0 | 19001 |     - |    27M |   0 | 306 | 113 | 365 |1649 | 80 |   0 |   0 | 7.138902e+03 |      --      |    Inf | unknown
  3.9s|     1 |     0 | 19004 |     - |    27M |   0 | 306 | 113 | 368 |1652 | 81 |   0 |   0 | 7.138917e+03 |      --      |    Inf | unknown
  3.9s|     1 |     0 | 19098 |     - |    27M |   0 | 306 | 113 | 383 |1667 | 82 |   0 |   0 | 7.157398e+03 |      --      |    Inf | unknown
  3.9s|     1 |     0 | 19100 |     - |    27M |   0 | 306 | 113 | 329 |1670 | 83 |   0 |   0 | 7.157403e+03 |      --      |    Inf | unknown
  3.9s|     1 |     0 | 19147 |     - |    27M |   0 | 306 | 113 | 347 |1688 | 84 |   0 |   0 | 7.186359e+03 |      --      |    Inf | unknown
  3.9s|     1 |     0 | 19154 |     - |    27M |   0 | 306 | 113 | 350 |1691 | 85 |   0 |   0 | 7.186558e+03 |      --      |    Inf | unknown
  3.9s|     1 |     0 | 19252 |     - |    27M |   0 | 306 | 113 | 365 |1706 | 86 |   0 |   0 | 7.323295e+03 |      --      |    Inf | unknown
  3.9s|     1 |     0 | 19254 |     - |    27M |   0 | 306 | 113 | 368 |1709 | 87 |   0 |   0 | 7.323337e+03 |      --      |    Inf | unknown
  3.9s|     1 |     0 | 19335 |     - |    27M |   0 | 306 | 113 | 385 |1726 | 88 |   0 |   0 | 7.342758e+03 |      --      |    Inf | unknown
 time | node  | left  |LP iter|LP it/n|mem/heur|mdpt |vars |cons |rows |cuts |sepa|confs|strbr|  dualbound   | primalbound  |  gap   | compl. 
  3.9s|     1 |     0 | 19349 |     - |    27M |   0 | 306 | 113 | 339 |1731 | 89 |   0 |   0 | 7.342833e+03 |      --      |    Inf | unknown
  3.9s|     1 |     0 | 19398 |     - |    27M |   0 | 306 | 113 | 357 |1749 | 90 |   0 |   0 | 7.364930e+03 |      --      |    Inf | unknown
  3.9s|     1 |     0 | 19401 |     - |    27M |   0 | 306 | 113 | 359 |1751 | 91 |   0 |   0 | 7.364973e+03 |      --      |    Inf | unknown
  3.9s|     1 |     0 | 19602 |     - |    27M |   0 | 306 | 113 | 375 |1767 | 92 |   0 |   0 | 7.417837e+03 |      --      |    Inf | unknown
  3.9s|     1 |     0 | 19607 |     - |    27M |   0 | 306 | 113 | 378 |1770 | 93 |   0 |   0 | 7.417854e+03 |      --      |    Inf | unknown
  3.9s|     1 |     0 | 19675 |     - |    27M |   0 | 306 | 113 | 398 |1790 | 94 |   0 |   0 | 7.425629e+03 |      --      |    Inf | unknown
  3.9s|     1 |     0 | 19678 |     - |    27M |   0 | 306 | 113 | 354 |1792 | 95 |   0 |   0 | 7.425632e+03 |      --      |    Inf | unknown
  3.9s|     1 |     0 | 19843 |     - |    27M |   0 | 306 | 113 | 373 |1811 | 96 |   0 |   0 | 7.472940e+03 |      --      |    Inf | unknown
  3.9s|     1 |     0 | 19847 |     - |    27M |   0 | 306 | 113 | 376 |1814 | 97 |   0 |   0 | 7.473035e+03 |      --      |    Inf | unknown
  3.9s|     1 |     0 | 19890 |     - |    27M |   0 | 306 | 113 | 395 |1833 | 98 |   0 |   0 | 7.477183e+03 |      --      |    Inf | unknown
  3.9s|     1 |     0 | 19894 |     - |    27M |   0 | 306 | 113 | 398 |1836 | 99 |   0 |   0 | 7.477241e+03 |      --      |    Inf | unknown
  3.9s|     1 |     0 | 19945 |     - |    27M |   0 | 306 | 113 | 417 |1855 |100 |   0 |   0 | 7.478100e+03 |      --      |    Inf | unknown
  3.9s|     1 |     0 | 19948 |     - |    27M |   0 | 306 | 113 | 353 |1856 |101 |   0 |   0 | 7.478118e+03 |      --      |    Inf | unknown
  3.9s|     1 |     0 | 20110 |     - |    27M |   0 | 306 | 113 | 370 |1873 |102 |   0 |   0 | 7.492490e+03 |      --      |    Inf | unknown
  4.0s|     1 |     0 | 20131 |     - |    27M |   0 | 306 | 113 | 378 |1881 |103 |   0 |   0 | 7.493298e+03 |      --      |    Inf | unknown
 time | node  | left  |LP iter|LP it/n|mem/heur|mdpt |vars |cons |rows |cuts |sepa|confs|strbr|  dualbound   | primalbound  |  gap   | compl. 
  4.0s|     1 |     0 | 20190 |     - |    27M |   0 | 306 | 113 | 397 |1900 |104 |   0 |   0 | 7.497612e+03 |      --      |    Inf | unknown
  4.0s|     1 |     0 | 20194 |     - |    27M |   0 | 306 | 113 | 401 |1904 |105 |   0 |   0 | 7.497643e+03 |      --      |    Inf | unknown
  4.0s|     1 |     0 | 20359 |     - |    27M |   0 | 306 | 113 | 418 |1921 |106 |   0 |   0 | 7.541396e+03 |      --      |    Inf | unknown
  4.0s|     1 |     0 | 20361 |     - |    27M |   0 | 306 | 113 | 343 |1924 |107 |   0 |   0 | 7.541398e+03 |      --      |    Inf | unknown
  4.0s|     1 |     0 | 20423 |     - |    27M |   0 | 306 | 113 | 357 |1938 |108 |   0 |   0 | 7.556607e+03 |      --      |    Inf | unknown
  4.0s|     1 |     0 | 20430 |     - |    27M |   0 | 306 | 113 | 361 |1942 |109 |   0 |   0 | 7.556671e+03 |      --      |    Inf | unknown
  4.0s|     1 |     0 | 20719 |     - |    27M |   0 | 306 | 113 | 379 |1960 |110 |   0 |   0 | 7.616883e+03 |      --      |    Inf | unknown
  4.0s|     1 |     0 | 20722 |     - |    27M |   0 | 306 | 113 | 382 |1963 |111 |   0 |   0 | 7.616956e+03 |      --      |    Inf | unknown
  4.0s|     1 |     0 | 20755 |     - |    27M |   0 | 306 | 113 | 401 |1982 |112 |   0 |   0 | 7.618736e+03 |      --      |    Inf | unknown
  4.0s|     1 |     0 | 20761 |     - |    27M |   0 | 306 | 113 | 347 |1987 |113 |   0 |   0 | 7.618824e+03 |      --      |    Inf | unknown
  4.0s|     1 |     0 | 20798 |     - |    27M |   0 | 306 | 113 | 366 |2006 |114 |   0 |   0 | 7.637671e+03 |      --      |    Inf | unknown
  4.0s|     1 |     0 | 20805 |     - |    27M |   0 | 306 | 113 | 370 |2010 |115 |   0 |   0 | 7.637750e+03 |      --      |    Inf | unknown
  4.0s|     1 |     0 | 20892 |     - |    27M |   0 | 306 | 113 | 391 |2031 |116 |   0 |   0 | 7.693812e+03 |      --      |    Inf | unknown
  4.0s|     1 |     0 | 20902 |     - |    27M |   0 | 306 | 113 | 399 |2039 |117 |   0 |   0 | 7.693922e+03 |      --      |    Inf | unknown
  4.0s|     1 |     0 | 20964 |     - |    27M |   0 | 306 | 113 | 418 |2058 |118 |   0 |   0 | 7.698411e+03 |      --      |    Inf | unknown
 time | node  | left  |LP iter|LP it/n|mem/heur|mdpt |vars |cons |rows |cuts |sepa|confs|strbr|  dualbound   | primalbound  |  gap   | compl. 
  4.0s|     1 |     0 | 20970 |     - |    27M |   0 | 306 | 113 | 365 |2063 |119 |   0 |   0 | 7.698418e+03 |      --      |    Inf | unknown
  4.0s|     1 |     0 | 21121 |     - |    27M |   0 | 306 | 113 | 382 |2080 |120 |   0 |   0 | 7.707755e+03 |      --      |    Inf | unknown
  4.0s|     1 |     0 | 21126 |     - |    27M |   0 | 306 | 113 | 386 |2084 |121 |   0 |   0 | 7.707757e+03 |      --      |    Inf | unknown
  4.0s|     1 |     0 | 21186 |     - |    27M |   0 | 306 | 113 | 401 |2099 |122 |   0 |   0 | 7.710366e+03 |      --      |    Inf | unknown
  4.0s|     1 |     0 | 21190 |     - |    27M |   0 | 306 | 113 | 404 |2102 |123 |   0 |   0 | 7.710378e+03 |      --      |    Inf | unknown
  4.0s|     1 |     0 | 21283 |     - |    27M |   0 | 306 | 113 | 420 |2118 |124 |   0 |   0 | 7.715265e+03 |      --      |    Inf | unknown
  4.0s|     1 |     0 | 21285 |     - |    27M |   0 | 306 | 113 | 346 |2119 |125 |   0 |   0 | 7.715266e+03 |      --      |    Inf | unknown
  4.0s|     1 |     0 | 21351 |     - |    27M |   0 | 306 | 113 | 359 |2132 |126 |   0 |   0 | 7.735728e+03 |      --      |    Inf | unknown
  4.0s|     1 |     0 | 21359 |     - |    27M |   0 | 306 | 113 | 362 |2135 |127 |   0 |   0 | 7.735838e+03 |      --      |    Inf | unknown
  4.0s|     1 |     0 | 21479 |     - |    27M |   0 | 306 | 113 | 380 |2153 |128 |   0 |   0 | 7.744135e+03 |      --      |    Inf | unknown
  4.0s|     1 |     0 | 21485 |     - |    27M |   0 | 306 | 113 | 383 |2156 |129 |   0 |   0 | 7.744190e+03 |      --      |    Inf | unknown
  4.0s|     1 |     0 | 21625 |     - |    27M |   0 | 306 | 113 | 400 |2173 |130 |   0 |   0 | 7.753857e+03 |      --      |    Inf | unknown
  4.0s|     1 |     0 | 21631 |     - |    27M |   0 | 306 | 113 | 337 |2177 |131 |   0 |   0 | 7.753866e+03 |      --      |    Inf | unknown
  4.0s|     1 |     0 | 21658 |     - |    27M |   0 | 306 | 113 | 352 |2192 |132 |   0 |   0 | 7.756640e+03 |      --      |    Inf | unknown
  4.0s|     1 |     0 | 21660 |     - |    27M |   0 | 306 | 113 | 354 |2194 |133 |   0 |   0 | 7.756643e+03 |      --      |    Inf | unknown
 time | node  | left  |LP iter|LP it/n|mem/heur|mdpt |vars |cons |rows |cuts |sepa|confs|strbr|  dualbound   | primalbound  |  gap   | compl. 
  4.0s|     1 |     0 | 21762 |     - |    27M |   0 | 306 | 113 | 368 |2208 |134 |   0 |   0 | 7.778908e+03 |      --      |    Inf | unknown
  4.0s|     1 |     0 | 21805 |     - |    27M |   0 | 306 | 113 | 375 |2215 |135 |   0 |   0 | 7.780324e+03 |      --      |    Inf | unknown
  4.0s|     1 |     0 | 21825 |     - |    27M |   0 | 306 | 113 | 391 |2231 |136 |   0 |   0 | 7.781249e+03 |      --      |    Inf | unknown
  4.0s|     1 |     0 | 21830 |     - |    27M |   0 | 306 | 113 | 333 |2235 |137 |   0 |   0 | 7.781253e+03 |      --      |    Inf | unknown
  4.0s|     1 |     0 | 21859 |     - |    27M |   0 | 306 | 113 | 349 |2251 |138 |   0 |   0 | 7.782601e+03 |      --      |    Inf | unknown
  4.0s|     1 |     0 | 21862 |     - |    27M |   0 | 306 | 113 | 354 |2256 |139 |   0 |   0 | 7.782601e+03 |      --      |    Inf | unknown
  4.0s|     1 |     0 | 21916 |     - |    27M |   0 | 306 | 113 | 367 |2269 |140 |   0 |   0 | 7.785725e+03 |      --      |    Inf | unknown
  4.0s|     1 |     0 | 21920 |     - |    27M |   0 | 306 | 113 | 369 |2271 |141 |   0 |   0 | 7.785739e+03 |      --      |    Inf | unknown
  4.0s|     1 |     0 | 22002 |     - |    27M |   0 | 306 | 113 | 381 |2283 |142 |   0 |   0 | 7.787371e+03 |      --      |    Inf | unknown
  4.0s|     1 |     0 | 22007 |     - |    27M |   0 | 306 | 113 | 329 |2285 |143 |   0 |   0 | 7.787383e+03 |      --      |    Inf | unknown
  4.0s|     1 |     0 | 22033 |     - |    27M |   0 | 306 | 113 | 341 |2297 |144 |   0 |   0 | 7.787508e+03 |      --      |    Inf | unknown
  4.1s|     1 |     0 | 22036 |     - |    27M |   0 | 306 | 113 | 343 |2299 |145 |   0 |   0 | 7.787516e+03 |      --      |    Inf | unknown
  4.1s|     1 |     0 | 22073 |     - |    27M |   0 | 306 | 113 | 354 |2310 |146 |   0 |   0 | 7.790480e+03 |      --      |    Inf | unknown
  4.1s|     1 |     0 | 22074 |     - |    27M |   0 | 306 | 113 | 355 |2311 |147 |   0 |   0 | 7.790480e+03 |      --      |    Inf | unknown
  4.1s|     1 |     0 | 22107 |     - |    27M |   0 | 306 | 113 | 366 |2322 |148 |   0 |   0 | 7.793622e+03 |      --      |    Inf | unknown
 time | node  | left  |LP iter|LP it/n|mem/heur|mdpt |vars |cons |rows |cuts |sepa|confs|strbr|  dualbound   | primalbound  |  gap   | compl. 
  4.1s|     1 |     2 | 22107 |     - |    27M |   0 | 306 | 113 | 366 |2322 |149 |   0 |   0 | 7.793622e+03 |      --      |    Inf | unknown

SCIP Status        : solving was interrupted [node limit reached]
Solving Time (sec) : 4.06
Solving Nodes      : 1
Primal Bound       : +1.00000000000000e+20 (0 solutions)
Dual Bound         : +7.79362200790621e+03
Gap                : infinite


SCIP Status        : solving was interrupted [node limit reached]
Total Time         :       4.06
  solving          :       4.06
  presolving       :       0.01 (included in solving)
  reading          :       0.00
  copying          :       0.01 (1 #copies) (minimal 0.01, maximal 0.01, average 0.01)
Original Problem   :
  Problem name     : powerflow0014r
  Variables        : 119 (0 binary, 0 integer, 119 continuous)
  Implied int vars : 0 (0 binary, 0 integer, 0 continuous)
  Constraints      : 198 initial, 198 maximal
  Objective        : minimize, 6 non-zeros (abs.min = 1, abs.max = 4000)
Presolved Problem  :
  Problem name     : t_powerflow0014r
  Variables        : 306 (0 binary, 0 integer, 306 continuous)
  Implied int vars : 0 (0 binary, 0 integer, 0 continuous)
  Constraints      : 113 initial, 113 maximal
  Objective        : minimize, 6 non-zeros (abs.min = 1, abs.max = 4000)
  Nonzeros         : 491 constraint, 0 clique table
Presolvers         :   ExecTime  SetupTime  Calls  FixedVars   AggrVars   ChgTypes  ChgBounds   AddHoles    DelCons    AddCons   ChgSides   ChgCoefs
  boundshift       :       0.00       0.00      0          0          0          0          0          0          0          0          0          0
  convertinttobin  :       0.00       0.00      0          0          0          0          0          0          0          0          0          0
  domcol           :       0.00       0.00      1          0          0          0          0          0          0          0          0          0
  dualagg          :       0.00       0.00      0          0          0          0          0          0          0          0          0          0
  dualcomp         :       0.00       0.00      1          0          0          0          0          0          0          0          0          0
  dualinfer        :       0.00       0.00      0          0          0          0          0          0          0          0          0          0
  dualsparsify     :       0.00       0.00      1          0          0          0          0          0          0          0          0          0
  gateextraction   :       0.00       0.00      0          0          0          0          0          0          0          0          0          0
  implics          :       0.00       0.00      1          0          0          0          0          0          0          0          0          0
  implint          :       0.00       0.00      0          0          0          0          0          0          0          0          0          0
  inttobinary      :       0.00       0.00      0          0          0          0          0          0          0          0          0          0
  qpkktref         :       0.00       0.00      0          0          0          0          0          0          0          0          0          0
  redvub           :       0.00       0.00      0          0          0          0          0          0          0          0          0          0
  sparsify         :       0.00       0.00      1          0          0          0          0          0          0          0          0          0
  stuffing         :       0.00       0.00      0          0          0          0          0          0          0          0          0          0
  trivial          :       0.00       0.00      3          0          0          0          0          0          0          0          0          0
  tworowbnd        :       0.00       0.00      0          0          0          0          0          0          0          0          0          0
  dualfix          :       0.00       0.00      3          0          0          0          0          0          0          0          0          0
  genvbounds       :       0.00       0.00      0          0          0          0          0          0          0          0          0          0
  probing          :       0.00       0.00      0          0          0          0          0          0          0          0          0          0
  pseudoobj        :       0.00       0.00      0          0          0          0          0          0          0          0          0          0
  symmetry         :       0.00       0.00      1          0          0          0          0          0          0          0          0          0
  vbounds          :       0.00       0.00      0          0          0          0          0          0          0          0          0          0
  linear           :       0.00       0.00      4          1         14          0         54          0         31          0          0          0
  nonlinear        :       0.01       0.01      5          0          0          0        340          0         40          0          0          0
  components       :       0.00       0.00      1          0          0          0          0          0          0          0          0          0
  root node        :          -          -      -          0          -          -        189          -          -          -          -          -
Constraints        :     Number  MaxNumber  #Separate #Propagate    #EnfoLP    #EnfoRelax  #EnfoPS    #Check   #ResProp    Cutoffs    DomReds       Cuts    Applied      Conss   Children
  integral         :          0          0          0          0          0          0          0          9          0          0          0          0          0          0          0
  linear           :         18         18         80        120          0          0          0          9          0          0          0          0          0          0          0
  nonlinear        :         95         95         80        120         70          0          0          1          0         28          0       2941       1134          0          2
  fixedvar         :          0          0          0          0          0          0          0          0          0          0          0          0          0          0          0
  countsols        :          0          0          0          0          0          0          0          0          0          0          0          0          0          0          0
  components       :          0          0          0          0          0          0          0          0          0          0          0          0          0          0          0
Constraint Timings :  TotalTime  SetupTime   Separate  Propagate     EnfoLP     EnfoPS     EnfoRelax   Check    ResProp    SB-Prop
  integral         :       0.00       0.00       0.00       0.00       0.00       0.00       0.00       0.00       0.00       0.00
  linear           :       0.01       0.00       0.00       0.01       0.00       0.00       0.00       0.00       0.00       0.00
  nonlinear        :       2.88       0.01       1.79       0.03       1.05       0.00       0.00       0.00       0.00       0.00
  fixedvar         :       0.00       0.00       0.00       0.00       0.00       0.00       0.00       0.00       0.00       0.00
  countsols        :       0.00       0.00       0.00       0.00       0.00       0.00       0.00       0.00       0.00       0.00
  components       :       0.00       0.00       0.00       0.00       0.00       0.00       0.00       0.00       0.00       0.00
Propagators        : #Propagate   #ResProp    Cutoffs    DomReds
  dualfix          :          1          0          0          0
  genvbounds       :          0          0          0          0
  nlobbt           :          0          0          0          0
  obbt             :        142          0          0          0
  probing          :          0          0          0          0
  pseudoobj        :          0          0          0          0
  redcost          :          0          0          0          0
  rootredcost      :          0          0          0          0
  symmetry         :          0          0          0          0
  vbounds          :          0          0          0          0
Propagator Timings :  TotalTime  SetupTime   Presolve  Propagate    ResProp    SB-Prop
  dualfix          :       0.00       0.00       0.00       0.00       0.00       0.00
  genvbounds       :       0.00       0.00       0.00       0.00       0.00       0.00
  nlobbt           :       0.00       0.00       0.00       0.00       0.00       0.00
  obbt             :       0.68       0.00       0.00       0.68       0.00       0.00
  probing          :       0.00       0.00       0.00       0.00       0.00       0.00
  pseudoobj        :       0.00       0.00       0.00       0.00       0.00       0.00
  redcost          :       0.00       0.00       0.00       0.00       0.00       0.00
  rootredcost      :       0.00       0.00       0.00       0.00       0.00       0.00
  symmetry         :       0.00       0.00       0.00       0.00       0.00       0.00
  vbounds          :       0.00       0.00       0.00       0.00       0.00       0.00
Conflict Analysis  :       Time      Calls    Success    DomReds  Conflicts   Literals    Reconvs ReconvLits   Dualrays   Nonzeros   LP Iters   (pool size: [--,--])
  propagation      :       0.00          0          0          -          0        0.0          0        0.0          -          -          -
  infeasible LP    :       0.00          0          0          -          0        0.0          0        0.0          0        0.0          0
  bound exceed. LP :       0.00          0          0          -          0        0.0          0        0.0          0        0.0          0
  strong branching :       0.00          0          0          -          0        0.0          0        0.0          -          -          0
  pseudo solution  :       0.00          0          0          -          0        0.0          0        0.0          -          -          -
  applied globally :       0.00          -          -          0          0        0.0          -          -          0          -          -
  applied locally  :          -          -          -          0          0        0.0          -          -          0          -          -
Gen. Resolution CA :       Time      Calls    Success  Conflicts  LargeCoef  LongConfs    Length
  propagation      :       0.00          0          0          0          0          0       0.0
Separators         :   ExecTime  SetupTime      Calls  RootCalls    Cutoffs    DomReds  FoundCuts ViaPoolAdd  DirectAdd    Applied ViaPoolApp  DirectApp      Conss
  cut pool         :       0.00          -          0          0          -          -          0          0          -          -          -          -          -    (maximal pool size:          0)
  aggregation      :       0.00       0.00          0          0          0          0          0          0          0          0          0          0          0
  > cmir           :          -          -          -          -          -          -          -          0          0          0          0          0          -
  > flowcover      :          -          -          -          -          -          -          -          0          0          0          0          0          -
  > knapsackcover  :          -          -          -          -          -          -          -          0          0          0          0          0          -
  cgmip            :       0.00       0.00          0          0          0          0          0          0          0          0          0          0          0
  clique           :       0.00       0.00          0          0          0          0          0          0          0          0          0          0          0
  closecuts        :       0.00       0.00          0          0          0          0          0          0          0          0          0          0          0
  convexproj       :       0.00       0.00          0          0          0          0          0          0          0          0          0          0          0
  disjunctive      :       0.00       0.00          0          0          0          0          0          0          0          0          0          0          0
  eccuts           :       0.00       0.00          0          0          0          0          0          0          0          0          0          0          0
  flower           :       0.00       0.00         80         80          0          0          0          0          0          0          0          0          0
  gauge            :       0.00       0.00          0          0          0          0          0          0          0          0          0          0          0
  gomory           :       0.00       0.00          0          0          0          0          0          0          0          0          0          0          0
  > gomorymi       :          -          -          -          -          -          -          -          0          0          0          0          0          -
  > strongcg       :          -          -          -          -          -          -          -          0          0          0          0          0          -
  impliedbounds    :       0.00       0.00          0          0          0          0          0          0          0          0          0          0          0
  interminor       :       0.00       0.00          0          0          0          0          0          0          0          0          0          0          0
  intobj           :       0.00       0.00          0          0          0          0          0          0          0          0          0          0          0
  lagromory        :       0.00       0.00          0          0          0          0          0          0          0          0          0          0          0
  mcf              :       0.00       0.00          0          0          0          0          0          0          0          0          0          0          0
  minor            :       0.01       0.00         80         80          0          0       4967          0       4967       1188          0       1188          0
  mixing           :       0.00       0.00         80         80          0          0          0          0          0          0          0          0          0
  oddcycle         :       0.00       0.00          0          0          0          0          0          0          0          0          0          0          0
  rapidlearning    :       0.00       0.00          0          0          0          0          0          0          0          0          0          0          0
  rlt              :       0.00       0.00         10         10          0          0          0          0          0          0          0          0          0
  zerohalf         :       0.00       0.00          0          0          0          0          0          0          0          0          0          0          0
Cutselectors       :   ExecTime  SetupTime      Calls  RootCalls   Selected     Forced   Filtered  RootSelec   RootForc   RootFilt 
  hybrid           :       0.01       0.00         80         80       1349          0       5577       1349          0       5577
  ensemble         :       0.00       0.00          0          0          0          0          0          0          0          0
  dynamic          :       0.00       0.00          0          0          0          0          0          0          0          0
Pricers            :   ExecTime  SetupTime      Calls       Vars
  problem variables:       0.00          -          0          0
Branching Rules    :   ExecTime  SetupTime   BranchLP  BranchExt   BranchPS    Cutoffs    DomReds       Cuts      Conss   Children
  allfullstrong    :       0.00       0.00          0          0          0          0          0          0          0          0
  cloud            :       0.00       0.00          0          0          0          0          0          0          0          0
  distribution     :       0.00       0.00          0          0          0          0          0          0          0          0
  fullstrong       :       0.00       0.00          0          0          0          0          0          0          0          0
  gomory           :       0.00       0.00          0          0          0          0          0          0          0          0
  inference        :       0.00       0.00          0          0          0          0          0          0          0          0
  leastinf         :       0.00       0.00          0          0          0          0          0          0          0          0
  lookahead        :       0.00       0.00          0          0          0          0          0          0          0          0
  mostinf          :       0.00       0.00          0          0          0          0          0          0          0          0
  multaggr         :       0.00       0.00          0          0          0          0          0          0          0          0
  nodereopt        :       0.00       0.00          0          0          0          0          0          0          0          0
  pscost           :       0.00       0.00          0          0          0          0          0          0          0          0
  random           :       0.00       0.00          0          0          0          0          0          0          0          0
  relpscost        :       0.00       0.00          0          0          0          0          0          0          0          0
  vanillafullstrong:       0.00       0.00          0          0          0          0          0          0          0          0
Primal Heuristics  :   ExecTime  SetupTime      Calls      Found       Best
  LP solutions     :       0.00          -          -          0          0
  relax solutions  :       0.00          -          -          0          0
  pseudo solutions :       0.00          -          -          0          0
  strong branching :       0.00          -          -          0          0
  actconsdiving    :       0.00       0.00          0          0          0
  adaptivediving   :       0.00       0.00          0          0          0
  alns             :       0.02       0.00          1          0          0
  bound            :       0.00       0.00          0          0          0
  clique           :       0.00       0.00          0          0          0
  coefdiving       :       0.00       0.00          0          0          0
  completesol      :       0.00       0.00          0          0          0
  conflictdiving   :       0.00       0.00          0          0          0
  crossover        :       0.00       0.00          0          0          0
  dins             :       0.00       0.00          0          0          0
  distributiondivin:       0.00       0.00          0          0          0
  dks              :       0.00       0.00          0          0          0
  dps              :       0.00       0.00          0          0          0
  dualval          :       0.00       0.00          0          0          0
  farkasdiving     :       0.00       0.00          0          0          0
  feaspump         :       0.00       0.00          0          0          0
  fixandinfer      :       0.00       0.00          0          0          0
  fracdiving       :       0.00       0.00          0          0          0
  gins             :       0.00       0.00          0          0          0
  guideddiving     :       0.00       0.00          0          0          0
  indicator        :       0.00       0.00          0          0          0
  indicatordiving  :       0.00       0.00          0          0          0
  intdiving        :       0.00       0.00          0          0          0
  intshifting      :       0.00       0.00          0          0          0
  linesearchdiving :       0.00       0.00          0          0          0
  localbranching   :       0.00       0.00          0          0          0
  locks            :       0.00       0.00          0          0          0
  lpface           :       0.00       0.00          0          0          0
  mpec             :       0.00       0.00          0          0          0
  multistart       :       0.00       0.00          0          0          0
  mutation         :       0.00       0.00          0          0          0
  nlpdiving        :       0.00       0.00          0          0          0
  objpscostdiving  :       0.00       0.00          0          0          0
  octane           :       0.00       0.00          0          0          0
  ofins            :       0.00       0.00          0          0          0
  oneopt           :       0.00       0.00          0          0          0
  padm             :       0.00       0.00          0          0          0
  proximity        :       0.00       0.00          0          0          0
  pscostdiving     :       0.00       0.00          0          0          0
  randrounding     :       0.00       0.00          0          0          0
  rens             :       0.00       0.00          0          0          0
  reoptsols        :       0.00       0.00          0          0          0
  repair           :       0.00       0.00          0          0          0
  rins             :       0.00       0.00          0          0          0
  rootsoldiving    :       0.00       0.00          0          0          0
  rounding         :       0.00       0.00          0          0          0
  scheduler        :       0.00       0.00          0          0          0
  shiftandpropagate:       0.00       0.00          0          0          0
  shifting         :       0.00       0.00          0          0          0
  simplerounding   :       0.00       0.00          0          0          0
  subnlp           :       0.00       0.00          0          0          0
  trivial          :       0.00       0.00          2          0          0
  trivialnegation  :       0.00       0.00          0          0          0
  trustregion      :       0.00       0.00          0          0          0
  trysol           :       0.00       0.00          0          0          0
  twoopt           :       0.00       0.00          0          0          0
  undercover       :       0.05       0.00          1          0          0
  vbounds          :       0.00       0.00          0          0          0
  veclendiving     :       0.00       0.00          0          0          0
  zeroobj          :       0.00       0.00          0          0          0
  zirounding       :       0.00       0.00          0          0          0
  other solutions  :          -          -          -          0          -
LNS (Scheduler)    :      Calls  SetupTime  SolveTime SolveNodes       Sols       Best       Exp3    Exp3-IX  EpsGreedy        UCB TgtFixRate  Opt  Inf Node Stal  Sol  Usr Othr Actv
  zeroobjective    :          0       0.00       0.00          0          0          0    0.00000    1.00000   -1.00000    1.00000      0.900    0    0    0    0    0    0    0    1
  rens             :          0       0.00       0.00          0          0          0    0.00000    0.00000   -1.00000    1.00000      0.900    0    0    0    0    0    0    0    0
  rins             :          0       0.00       0.00          0          0          0    0.00000    0.00000   -1.00000    1.00000      0.900    0    0    0    0    0    0    0    0
  mutation         :          0       0.00       0.00          0          0          0    0.00000    0.00000   -1.00000    1.00000      0.900    0    0    0    0    0    0    0    0
  localbranching   :          0       0.00       0.00          0          0          0    0.00000    0.00000   -1.00000    1.00000      0.900    0    0    0    0    0    0    0    0
  crossover        :          0       0.00       0.00          0          0          0    0.00000    0.00000   -1.00000    1.00000      0.900    0    0    0    0    0    0    0    0
  proximity        :          0       0.00       0.00          0          0          0    0.00000    0.00000   -1.00000    1.00000      0.900    0    0    0    0    0    0    0    0
  dins             :          0       0.00       0.00          0          0          0    0.00000    0.00000   -1.00000    1.00000      0.900    0    0    0    0    0    0    0    0
  trustregion      :          0       0.00       0.00          0          0          0    0.00000    0.00000   -1.00000    1.00000      0.900    0    0    0    0    0    0    0    0
Expressions        :   #IntEval  IntEvalTi   #RevProp  RevPropTi    DomReds    Cutoffs  #Estimate  EstimTime  Branching  #Simplify SimplifyTi Simplified
  pow              :       4127       0.00        549       0.00        298          0      13380       0.00       1665        656       0.00         14
  prod             :       1372       0.00         88       0.00         19          0      26091       0.00       5317        816       0.00         24
  sum              :       2278       0.00       1462       0.00        417          0         95       0.00          0        402       0.00        119
  val              :          0       0.00          0       0.00          0          0          0       0.00          0          0       0.00          0
  var              :       6727       0.01          0       0.00          0          0          0       0.00          0       2426       0.00         42
Nlhdlrs            :    Detects  DetectAll DetectTime   #IntEval  IntEvalTi   #RevProp  RevPropTi    DomReds    Cutoffs   #Enforce   EnfoTime       Cuts  Branching
  soc              :          0          0       0.00          0       0.00          0       0.00          0          0          0       0.00          0          0
  convex           :          0          0       0.00          0       0.00          0       0.00          0          0          0       0.00          0          0
  concave          :          0          0       0.00          0       0.00          0       0.00          0          0          0       0.00          0          0
  signomial        :          0          0       0.00          0       0.00          0       0.00          0          0          0       0.00          0          0
  quotient         :          0          0       0.00          0       0.00          0       0.00          0          0          0       0.00          0          0
  quadratic        :         93        447       0.00       5487       0.02       5058       0.01       2066         19      13892       2.67       1839          0
  default          :        333       1366       0.00       6968       0.01       2411       0.00        734          1      39463       0.06       1102          0
  bilinear         :         76         76       0.00        796       0.00         68       0.00          0          0      25575       0.01          0          0
  perspective      :          0          0       0.00          0       0.00          0       0.00          0          0          0       0.00          0          0
Quadratic Nlhdlr   :    GenCuts    AddCuts  CouldImpr   NLargeRE AbrtBadRay AbrtPosPhi AbrtNonBas  NStrength  NMonoidal AveCutcoef    AveMonoidalImprov AveDensity AveEfficacy AveBCutsFrac 
  Quadratic Nlhdlr :       1860       1839          0         21         24          0          0          0          0    1.14241                   -1   0.466159  0.0929126          0
Quadratic SetSel   :       Rule      Calls    Changed   Fallback      Evals    AveGain IntercutTime   SelectTime    Applied     Active   RootAppl
  Quadratic SetSel :          2       1609       1496         10      37049    1.03407       2.5200       0.5900        472          0        472
LP                 :       Time      Calls Iterations  Iter/call   Iter/sec  Time-0-It Calls-0-It
  primal LP        :       0.01         24          0       0.00       0.00       0.01         24
  dual LP          :       0.32        150       7725      51.50   24140.62       0.00          0
  lex dual LP      :       0.00          0          0       0.00          -
  barrier LP       :       0.00          0          0       0.00          -       0.00          0
  resolve instable :       0.00          0          0       0.00          -
  diving/probing LP:       0.65        209      14382      68.81   22126.15
  strong branching :       0.00          0          0       0.00          -          -          -          0
    (at root node) :          -          0          0       0.00          -
  conflict analysis:       0.00          0          0       0.00          -
NLP relaxation     :
  solve time       :       0.00 (0 calls)
  convexity        :  nonconvex (18 linear rows, 1 convex ineq., 0 nonconvex ineq., 94 nonlinear eq. or two-sided ineq.)
Relaxators         :       Time      Calls    Cutoffs ImprBounds   ImprTime ReducedDom  Separated AddedConss
  benders          :       0.00          0          0          0       0.00          0          0          0
B&B Tree           :
  number of runs   :          1
  nodes            :          1 (1 internal, 0 leaves)
  feasible leaves  :          0
  infeas. leaves   :          0
  objective leaves :          0
  nodes (total)    :          1 (1 internal, 0 leaves)
  nodes left       :          2
  max depth        :          0
  max depth (total):          0
  backtracks       :          0 (0.0%)
  early backtracks :          0 (0.0%)
  nodes exc. ref.  :          0 (0.0%)
  delayed cutoffs  :          0
  repropagations   :          0 (0 domain reductions, 0 cutoffs)
  avg switch length:       1.00
  switching time   :       0.00
Root Node          :
  First LP value   : -1.00000000000000e-09
  First LP Iters   :        226 (22600.00 Iter/sec)
  First LP Time    :       0.01
  Final Dual Bound : +7.79362200790621e+03
  Final Root Iters :       7729
  Root LP Estimate : +7.79362200790621e+03
Solution           :
  Solutions found  :          0 (0 improvements)
  Primal Bound     :          -
  Dual Bound       : +7.79362200790621e+03
  Gap              :   infinite
Integrals          :      Total       Avg%
  primal-dual      :     406.00     100.00
  primal-ref       :          -          - (not evaluated)
  dual-ref         :          -          - (not evaluated)



@@ wallclock 4.30 returncode 0
